# Name file for MT3D-USGS, generated by Flopy version 3.2.9.
LIST              16  CrnkNic.list
FTL               10  CrnkNic.ftl FREE
BTN               31  CrnkNic.btn 
ADV               32  CrnkNic.adv 
RCT               36  CrnkNic.rct 
GCG               35  CrnkNic.gcg 
SSM               34  CrnkNic.ssm 
SFT               19  CrnkNic.sft 
DATA              82  CrnkNic.sftcobs.out
