# SFR package for  MODFLOW-NWT, generated by Flopy.
reachinput 
650 6 0 0 1.00000000 0.00010000 0 0 1 
1 2 1 1 1 1.0 98.75 9.999999747378752e-05 0.5 1.000000013351432e-10
1 2 2 1 2 1.0 98.7499008178711 9.999999747378752e-05 0.5 1.000000013351432e-10
1 2 3 1 3 1.0 98.74980163574219 9.999999747378752e-05 0.5 1.000000013351432e-10
1 2 4 1 4 1.0 98.74970245361328 9.999999747378752e-05 0.5 1.000000013351432e-10
1 2 5 1 5 1.0 98.74960327148438 9.999999747378752e-05 0.5 1.000000013351432e-10
1 2 6 1 6 1.0 98.74949645996094 9.999999747378752e-05 0.5 1.000000013351432e-10
1 2 7 1 7 1.0 98.74939727783203 9.999999747378752e-05 0.5 1.000000013351432e-10
1 2 8 1 8 1.0 98.74929809570312 9.999999747378752e-05 0.5 1.000000013351432e-10
1 2 9 1 9 1.0 98.74919891357422 9.999999747378752e-05 0.5 1.000000013351432e-10
1 2 10 1 10 1.0 98.74909973144531 9.999999747378752e-05 0.5 1.000000013351432e-10
1 2 11 1 11 1.0 98.7490005493164 9.999999747378752e-05 0.5 1.000000013351432e-10
1 2 12 1 12 1.0 98.7489013671875 9.999999747378752e-05 0.5 1.000000013351432e-10
1 2 13 1 13 1.0 98.7488021850586 9.999999747378752e-05 0.5 1.000000013351432e-10
1 2 14 1 14 1.0 98.74870300292969 9.999999747378752e-05 0.5 1.000000013351432e-10
1 2 15 1 15 1.0 98.74859619140625 9.999999747378752e-05 0.5 1.000000013351432e-10
1 2 16 1 16 1.0 98.74849700927734 9.999999747378752e-05 0.5 1.000000013351432e-10
1 2 17 1 17 1.0 98.74839782714844 9.999999747378752e-05 0.5 1.000000013351432e-10
1 2 18 1 18 1.0 98.74829864501953 9.999999747378752e-05 0.5 1.000000013351432e-10
1 2 19 1 19 1.0 98.74819946289062 9.999999747378752e-05 0.5 1.000000013351432e-10
1 2 20 1 20 1.0 98.74810028076172 9.999999747378752e-05 0.5 1.000000013351432e-10
1 2 21 1 21 1.0 98.74800109863281 9.999999747378752e-05 0.5 1.000000013351432e-10
1 2 22 1 22 1.0 98.7479019165039 9.999999747378752e-05 0.5 1.000000013351432e-10
1 2 23 1 23 1.0 98.747802734375 9.999999747378752e-05 0.5 1.000000013351432e-10
1 2 24 1 24 1.0 98.7477035522461 9.999999747378752e-05 0.5 1.000000013351432e-10
1 2 25 1 25 1.0 98.74759674072266 9.999999747378752e-05 0.5 1.000000013351432e-10
1 2 26 1 26 1.0 98.74749755859375 9.999999747378752e-05 0.5 1.000000013351432e-10
1 2 27 1 27 1.0 98.74739837646484 9.999999747378752e-05 0.5 1.000000013351432e-10
1 2 28 1 28 1.0 98.74729919433594 9.999999747378752e-05 0.5 1.000000013351432e-10
1 2 29 1 29 1.0 98.74720001220703 9.999999747378752e-05 0.5 1.000000013351432e-10
1 2 30 1 30 1.0 98.74710083007812 9.999999747378752e-05 0.5 1.000000013351432e-10
1 2 31 1 31 1.0 98.74700164794922 9.999999747378752e-05 0.5 1.000000013351432e-10
1 2 32 1 32 1.0 98.74690246582031 9.999999747378752e-05 0.5 1.000000013351432e-10
1 2 33 1 33 1.0 98.7468032836914 9.999999747378752e-05 0.5 1.000000013351432e-10
1 2 34 1 34 1.0 98.74669647216797 9.999999747378752e-05 0.5 1.000000013351432e-10
1 2 35 1 35 1.0 98.74659729003906 9.999999747378752e-05 0.5 1.000000013351432e-10
1 2 36 1 36 1.0 98.74649810791016 9.999999747378752e-05 0.5 1.000000013351432e-10
1 2 37 1 37 1.0 98.74639892578125 9.999999747378752e-05 0.5 1.000000013351432e-10
1 2 38 1 38 1.0 98.74629974365234 9.999999747378752e-05 0.5 1.000000013351432e-10
1 2 39 2 1 1.0 98.74620056152344 9.999999747378752e-05 0.5 1.000000013351432e-10
1 2 40 2 2 1.0 98.74610137939453 9.999999747378752e-05 0.5 1.000000013351432e-10
1 2 41 2 3 1.0 98.74600219726562 9.999999747378752e-05 0.5 1.000000013351432e-10
1 2 42 2 4 1.0 98.74590301513672 9.999999747378752e-05 0.5 1.000000013351432e-10
1 2 43 2 5 1.0 98.74579620361328 9.999999747378752e-05 0.5 1.000000013351432e-10
1 2 44 2 6 1.0 98.74569702148438 9.999999747378752e-05 0.5 1.000000013351432e-10
1 2 45 2 7 1.0 98.74559783935547 9.999999747378752e-05 0.5 1.000000013351432e-10
1 2 46 2 8 1.0 98.74549865722656 9.999999747378752e-05 0.5 1.000000013351432e-10
1 2 47 2 9 1.0 98.74539947509766 9.999999747378752e-05 0.5 1.000000013351432e-10
1 2 48 2 10 1.0 98.74530029296875 9.999999747378752e-05 0.5 1.000000013351432e-10
1 2 49 2 11 1.0 98.74520111083984 9.999999747378752e-05 0.5 1.000000013351432e-10
1 2 50 2 12 1.0 98.74510192871094 9.999999747378752e-05 0.5 1.000000013351432e-10
1 2 51 2 13 1.0 98.74500274658203 9.999999747378752e-05 0.5 1.000000013351432e-10
1 2 52 2 14 1.0 98.74490356445312 9.999999747378752e-05 0.5 1.000000013351432e-10
1 2 53 2 15 1.0 98.74479675292969 9.999999747378752e-05 0.5 1.000000013351432e-10
1 2 54 2 16 1.0 98.74469757080078 9.999999747378752e-05 0.5 1.000000013351432e-10
1 2 55 2 17 1.0 98.74459838867188 9.999999747378752e-05 0.5 1.000000013351432e-10
1 2 56 2 18 1.0 98.74449920654297 9.999999747378752e-05 0.5 1.000000013351432e-10
1 2 57 2 19 1.0 98.74440002441406 9.999999747378752e-05 0.5 1.000000013351432e-10
1 2 58 2 20 1.0 98.74430084228516 9.999999747378752e-05 0.5 1.000000013351432e-10
1 2 59 2 21 1.0 98.74420166015625 9.999999747378752e-05 0.5 1.000000013351432e-10
1 2 60 2 22 1.0 98.74410247802734 9.999999747378752e-05 0.5 1.000000013351432e-10
1 2 61 2 23 1.0 98.74400329589844 9.999999747378752e-05 0.5 1.000000013351432e-10
1 2 62 2 24 1.0 98.743896484375 9.999999747378752e-05 0.5 1.000000013351432e-10
1 2 63 2 25 1.0 98.7437973022461 9.999999747378752e-05 0.5 1.000000013351432e-10
1 2 64 2 26 1.0 98.74369812011719 9.999999747378752e-05 0.5 1.000000013351432e-10
1 2 65 2 27 1.0 98.74359893798828 9.999999747378752e-05 0.5 1.000000013351432e-10
1 2 66 2 28 1.0 98.74349975585938 9.999999747378752e-05 0.5 1.000000013351432e-10
1 2 67 2 29 1.0 98.74340057373047 9.999999747378752e-05 0.5 1.000000013351432e-10
1 2 68 2 30 1.0 98.74330139160156 9.999999747378752e-05 0.5 1.000000013351432e-10
1 2 69 2 31 1.0 98.74320220947266 9.999999747378752e-05 0.5 1.000000013351432e-10
1 2 70 2 32 1.0 98.74310302734375 9.999999747378752e-05 0.5 1.000000013351432e-10
1 2 71 2 33 1.0 98.74299621582031 9.999999747378752e-05 0.5 1.000000013351432e-10
1 2 72 2 34 1.0 98.7428970336914 9.999999747378752e-05 0.5 1.000000013351432e-10
1 2 73 2 35 1.0 98.7427978515625 9.999999747378752e-05 0.5 1.000000013351432e-10
1 2 74 2 36 1.0 98.7426986694336 9.999999747378752e-05 0.5 1.000000013351432e-10
1 2 75 2 37 1.0 98.74259948730469 9.999999747378752e-05 0.5 1.000000013351432e-10
1 2 76 2 38 1.0 98.74250030517578 9.999999747378752e-05 0.5 1.000000013351432e-10
1 2 77 2 39 1.0 98.74240112304688 9.999999747378752e-05 0.5 1.000000013351432e-10
1 2 78 2 40 1.0 98.74230194091797 9.999999747378752e-05 0.5 1.000000013351432e-10
1 2 79 2 41 1.0 98.74220275878906 9.999999747378752e-05 0.5 1.000000013351432e-10
1 2 80 2 42 1.0 98.74210357666016 9.999999747378752e-05 0.5 1.000000013351432e-10
1 2 81 2 43 1.0 98.74199676513672 9.999999747378752e-05 0.5 1.000000013351432e-10
1 2 82 2 44 1.0 98.74189758300781 9.999999747378752e-05 0.5 1.000000013351432e-10
1 2 83 2 45 1.0 98.7417984008789 9.999999747378752e-05 0.5 1.000000013351432e-10
1 2 84 2 46 1.0 98.74169921875 9.999999747378752e-05 0.5 1.000000013351432e-10
1 2 85 2 47 1.0 98.7416000366211 9.999999747378752e-05 0.5 1.000000013351432e-10
1 2 86 2 48 1.0 98.74150085449219 9.999999747378752e-05 0.5 1.000000013351432e-10
1 2 87 2 49 1.0 98.74140167236328 9.999999747378752e-05 0.5 1.000000013351432e-10
1 2 88 2 50 1.0 98.74130249023438 9.999999747378752e-05 0.5 1.000000013351432e-10
1 2 89 2 51 1.0 98.74120330810547 9.999999747378752e-05 0.5 1.000000013351432e-10
1 2 90 2 52 1.0 98.74109649658203 9.999999747378752e-05 0.5 1.000000013351432e-10
1 2 91 2 53 1.0 98.74099731445312 9.999999747378752e-05 0.5 1.000000013351432e-10
1 2 92 2 54 1.0 98.74089813232422 9.999999747378752e-05 0.5 1.000000013351432e-10
1 2 93 2 55 1.0 98.74079895019531 9.999999747378752e-05 0.5 1.000000013351432e-10
1 2 94 2 56 1.0 98.7406997680664 9.999999747378752e-05 0.5 1.000000013351432e-10
1 2 95 2 57 1.0 98.7406005859375 9.999999747378752e-05 0.5 1.000000013351432e-10
1 2 96 2 58 1.0 98.7405014038086 9.999999747378752e-05 0.5 1.000000013351432e-10
1 2 97 2 59 1.0 98.74040222167969 9.999999747378752e-05 0.5 1.000000013351432e-10
1 2 98 2 60 1.0 98.74030303955078 9.999999747378752e-05 0.5 1.000000013351432e-10
1 2 99 2 61 1.0 98.74019622802734 9.999999747378752e-05 0.5 1.000000013351432e-10
1 2 100 2 62 1.0 98.74009704589844 9.999999747378752e-05 0.5 1.000000013351432e-10
1 2 101 2 63 1.0 98.73999786376953 9.999999747378752e-05 0.5 1.000000013351432e-10
1 2 102 2 64 1.0 98.73989868164062 9.999999747378752e-05 0.5 1.000000013351432e-10
1 2 103 2 65 1.0 98.73979949951172 9.999999747378752e-05 0.5 1.000000013351432e-10
1 2 104 2 66 1.0 98.73970031738281 9.999999747378752e-05 0.5 1.000000013351432e-10
1 2 105 2 67 1.0 98.7396011352539 9.999999747378752e-05 0.5 1.000000013351432e-10
1 2 106 3 1 1.0 98.739501953125 9.999999747378752e-05 0.5 2.9462191832863027e-06
1 2 107 3 2 1.0 98.7394027709961 9.999999747378752e-05 0.5 2.9462191832863027e-06
1 2 108 3 3 1.0 98.73930358886719 9.999999747378752e-05 0.5 2.9462191832863027e-06
1 2 109 3 4 1.0 98.73919677734375 9.999999747378752e-05 0.5 2.9462191832863027e-06
1 2 110 3 5 1.0 98.73909759521484 9.999999747378752e-05 0.5 2.9462191832863027e-06
1 2 111 3 6 1.0 98.73899841308594 9.999999747378752e-05 0.5 2.9462191832863027e-06
1 2 112 3 7 1.0 98.73889923095703 9.999999747378752e-05 0.5 2.9462191832863027e-06
1 2 113 3 8 1.0 98.73880004882812 9.999999747378752e-05 0.5 2.9462191832863027e-06
1 2 114 3 9 1.0 98.73870086669922 9.999999747378752e-05 0.5 2.9462191832863027e-06
1 2 115 3 10 1.0 98.73860168457031 9.999999747378752e-05 0.5 2.9462191832863027e-06
1 2 116 3 11 1.0 98.7385025024414 9.999999747378752e-05 0.5 2.9462191832863027e-06
1 2 117 3 12 1.0 98.7384033203125 9.999999747378752e-05 0.5 2.9462191832863027e-06
1 2 118 3 13 1.0 98.73829650878906 9.999999747378752e-05 0.5 2.9462191832863027e-06
1 2 119 3 14 1.0 98.73819732666016 9.999999747378752e-05 0.5 2.9462191832863027e-06
1 2 120 3 15 1.0 98.73809814453125 9.999999747378752e-05 0.5 2.9462191832863027e-06
1 2 121 3 16 1.0 98.73799896240234 9.999999747378752e-05 0.5 2.9462191832863027e-06
1 2 122 3 17 1.0 98.73789978027344 9.999999747378752e-05 0.5 2.9462191832863027e-06
1 2 123 3 18 1.0 98.73780059814453 9.999999747378752e-05 0.5 2.9462191832863027e-06
1 2 124 3 19 1.0 98.73770141601562 9.999999747378752e-05 0.5 2.9462191832863027e-06
1 2 125 3 20 1.0 98.73760223388672 9.999999747378752e-05 0.5 2.9462191832863027e-06
1 2 126 3 21 1.0 98.73750305175781 9.999999747378752e-05 0.5 2.9462191832863027e-06
1 2 127 3 22 1.0 98.73739624023438 9.999999747378752e-05 0.5 2.9462191832863027e-06
1 2 128 3 23 1.0 98.73729705810547 9.999999747378752e-05 0.5 2.9462191832863027e-06
1 2 129 3 24 1.0 98.73719787597656 9.999999747378752e-05 0.5 2.9462191832863027e-06
1 2 130 3 25 1.0 98.73709869384766 9.999999747378752e-05 0.5 2.9462191832863027e-06
1 2 131 3 26 1.0 98.73699951171875 9.999999747378752e-05 0.5 2.9462191832863027e-06
1 2 132 3 27 1.0 98.73690032958984 9.999999747378752e-05 0.5 2.9462191832863027e-06
1 2 133 3 28 1.0 98.73680114746094 9.999999747378752e-05 0.5 2.9462191832863027e-06
1 2 134 3 29 1.0 98.73670196533203 9.999999747378752e-05 0.5 2.9462191832863027e-06
1 2 135 3 30 1.0 98.73660278320312 9.999999747378752e-05 0.5 2.9462191832863027e-06
1 2 136 3 31 1.0 98.73650360107422 9.999999747378752e-05 0.5 2.9462191832863027e-06
1 2 137 3 32 1.0 98.73639678955078 9.999999747378752e-05 0.5 2.9462191832863027e-06
1 2 138 3 33 1.0 98.73629760742188 9.999999747378752e-05 0.5 2.9462191832863027e-06
1 2 139 3 34 1.0 98.73619842529297 9.999999747378752e-05 0.5 2.9462191832863027e-06
1 2 140 3 35 1.0 98.73609924316406 9.999999747378752e-05 0.5 2.9462191832863027e-06
1 2 141 3 36 1.0 98.73600006103516 9.999999747378752e-05 0.5 2.9462191832863027e-06
1 2 142 3 37 1.0 98.73590087890625 9.999999747378752e-05 0.5 2.9462191832863027e-06
1 2 143 3 38 1.0 98.73580169677734 9.999999747378752e-05 0.5 2.9462191832863027e-06
1 2 144 3 39 1.0 98.73570251464844 9.999999747378752e-05 0.5 2.9462191832863027e-06
1 2 145 3 40 1.0 98.73560333251953 9.999999747378752e-05 0.5 2.9462191832863027e-06
1 2 146 3 41 1.0 98.7354965209961 9.999999747378752e-05 0.5 2.9462191832863027e-06
1 2 147 3 42 1.0 98.73539733886719 9.999999747378752e-05 0.5 2.9462191832863027e-06
1 2 148 3 43 1.0 98.73529815673828 9.999999747378752e-05 0.5 2.9462191832863027e-06
1 2 149 3 44 1.0 98.73519897460938 9.999999747378752e-05 0.5 2.9462191832863027e-06
1 2 150 3 45 1.0 98.73509979248047 9.999999747378752e-05 0.5 2.9462191832863027e-06
1 2 151 3 46 1.0 98.73500061035156 9.999999747378752e-05 0.5 2.9462191832863027e-06
1 2 152 3 47 1.0 98.73490142822266 9.999999747378752e-05 0.5 2.9462191832863027e-06
1 2 153 3 48 1.0 98.73480224609375 9.999999747378752e-05 0.5 2.9462191832863027e-06
1 2 154 3 49 1.0 98.73470306396484 9.999999747378752e-05 0.5 2.9462191832863027e-06
1 2 155 3 50 1.0 98.7345962524414 9.999999747378752e-05 0.5 2.9462191832863027e-06
1 2 156 3 51 1.0 98.7344970703125 9.999999747378752e-05 0.5 2.9462191832863027e-06
1 2 157 3 52 1.0 98.7343978881836 9.999999747378752e-05 0.5 2.9462191832863027e-06
1 2 158 3 53 1.0 98.73429870605469 9.999999747378752e-05 0.5 2.9462191832863027e-06
1 2 159 3 54 1.0 98.73419952392578 9.999999747378752e-05 0.5 2.9462191832863027e-06
1 2 160 3 55 1.0 98.73410034179688 9.999999747378752e-05 0.5 2.9462191832863027e-06
1 2 161 3 56 1.0 98.73400115966797 9.999999747378752e-05 0.5 2.9462191832863027e-06
1 2 162 3 57 1.0 98.73390197753906 9.999999747378752e-05 0.5 2.9462191832863027e-06
1 2 163 3 58 1.0 98.73380279541016 9.999999747378752e-05 0.5 2.9462191832863027e-06
1 2 164 3 59 1.0 98.73370361328125 9.999999747378752e-05 0.5 2.9462191832863027e-06
1 2 165 3 60 1.0 98.73359680175781 9.999999747378752e-05 0.5 2.9462191832863027e-06
1 2 166 3 61 1.0 98.7334976196289 9.999999747378752e-05 0.5 2.9462191832863027e-06
1 2 167 3 62 1.0 98.7333984375 9.999999747378752e-05 0.5 2.9462191832863027e-06
1 2 168 3 63 1.0 98.7332992553711 9.999999747378752e-05 0.5 2.9462191832863027e-06
1 2 169 3 64 1.0 98.73320007324219 9.999999747378752e-05 0.5 2.9462191832863027e-06
1 2 170 3 65 1.0 98.73310089111328 9.999999747378752e-05 0.5 2.9462191832863027e-06
1 2 171 3 66 1.0 98.73300170898438 9.999999747378752e-05 0.5 2.9462191832863027e-06
1 2 172 3 67 1.0 98.73290252685547 9.999999747378752e-05 0.5 2.9462191832863027e-06
1 2 173 3 68 1.0 98.73280334472656 9.999999747378752e-05 0.5 2.9462191832863027e-06
1 2 174 3 69 1.0 98.73269653320312 9.999999747378752e-05 0.5 2.9462191832863027e-06
1 2 175 3 70 1.0 98.73259735107422 9.999999747378752e-05 0.5 2.9462191832863027e-06
1 2 176 3 71 1.0 98.73249816894531 9.999999747378752e-05 0.5 2.9462191832863027e-06
1 2 177 3 72 1.0 98.7323989868164 9.999999747378752e-05 0.5 2.9462191832863027e-06
1 2 178 3 73 1.0 98.7322998046875 9.999999747378752e-05 0.5 2.9462191832863027e-06
1 2 179 3 74 1.0 98.7322006225586 9.999999747378752e-05 0.5 2.9462191832863027e-06
1 2 180 3 75 1.0 98.73210144042969 9.999999747378752e-05 0.5 2.9462191832863027e-06
1 2 181 3 76 1.0 98.73200225830078 9.999999747378752e-05 0.5 2.9462191832863027e-06
1 2 182 3 77 1.0 98.73190307617188 9.999999747378752e-05 0.5 2.9462191832863027e-06
1 2 183 3 78 1.0 98.73179626464844 9.999999747378752e-05 0.5 2.9462191832863027e-06
1 2 184 3 79 1.0 98.73169708251953 9.999999747378752e-05 0.5 2.9462191832863027e-06
1 2 185 3 80 1.0 98.73159790039062 9.999999747378752e-05 0.5 2.9462191832863027e-06
1 2 186 3 81 1.0 98.73149871826172 9.999999747378752e-05 0.5 2.9462191832863027e-06
1 2 187 3 82 1.0 98.73139953613281 9.999999747378752e-05 0.5 2.9462191832863027e-06
1 2 188 3 83 1.0 98.7313003540039 9.999999747378752e-05 0.5 2.9462191832863027e-06
1 2 189 3 84 1.0 98.731201171875 9.999999747378752e-05 0.5 2.9462191832863027e-06
1 2 190 3 85 1.0 98.7311019897461 9.999999747378752e-05 0.5 2.9462191832863027e-06
1 2 191 3 86 1.0 98.73100280761719 9.999999747378752e-05 0.5 2.9462191832863027e-06
1 2 192 3 87 1.0 98.73090362548828 9.999999747378752e-05 0.5 2.9462191832863027e-06
1 2 193 3 88 1.0 98.73079681396484 9.999999747378752e-05 0.5 2.9462191832863027e-06
1 2 194 3 89 1.0 98.73069763183594 9.999999747378752e-05 0.5 2.9462191832863027e-06
1 2 195 3 90 1.0 98.73059844970703 9.999999747378752e-05 0.5 2.9462191832863027e-06
1 2 196 3 91 1.0 98.73049926757812 9.999999747378752e-05 0.5 2.9462191832863027e-06
1 2 197 3 92 1.0 98.73040008544922 9.999999747378752e-05 0.5 2.9462191832863027e-06
1 2 198 3 93 1.0 98.73030090332031 9.999999747378752e-05 0.5 2.9462191832863027e-06
1 2 199 3 94 1.0 98.7302017211914 9.999999747378752e-05 0.5 2.9462191832863027e-06
1 2 200 3 95 1.0 98.7301025390625 9.999999747378752e-05 0.5 2.9462191832863027e-06
1 2 201 3 96 1.0 98.7300033569336 9.999999747378752e-05 0.5 2.9462191832863027e-06
1 2 202 3 97 1.0 98.72989654541016 9.999999747378752e-05 0.5 2.9462191832863027e-06
1 2 203 3 98 1.0 98.72979736328125 9.999999747378752e-05 0.5 2.9462191832863027e-06
1 2 204 3 99 1.0 98.72969818115234 9.999999747378752e-05 0.5 2.9462191832863027e-06
1 2 205 3 100 1.0 98.72959899902344 9.999999747378752e-05 0.5 2.9462191832863027e-06
1 2 206 3 101 1.0 98.72949981689453 9.999999747378752e-05 0.5 2.9462191832863027e-06
1 2 207 3 102 1.0 98.72940063476562 9.999999747378752e-05 0.5 2.9462191832863027e-06
1 2 208 3 103 1.0 98.72930145263672 9.999999747378752e-05 0.5 2.9462191832863027e-06
1 2 209 3 104 1.0 98.72920227050781 9.999999747378752e-05 0.5 2.9462191832863027e-06
1 2 210 3 105 1.0 98.7291030883789 9.999999747378752e-05 0.5 2.9462191832863027e-06
1 2 211 3 106 1.0 98.72899627685547 9.999999747378752e-05 0.5 2.9462191832863027e-06
1 2 212 3 107 1.0 98.72889709472656 9.999999747378752e-05 0.5 2.9462191832863027e-06
1 2 213 3 108 1.0 98.72879791259766 9.999999747378752e-05 0.5 2.9462191832863027e-06
1 2 214 3 109 1.0 98.72869873046875 9.999999747378752e-05 0.5 2.9462191832863027e-06
1 2 215 3 110 1.0 98.72859954833984 9.999999747378752e-05 0.5 2.9462191832863027e-06
1 2 216 3 111 1.0 98.72850036621094 9.999999747378752e-05 0.5 2.9462191832863027e-06
1 2 217 3 112 1.0 98.72840118408203 9.999999747378752e-05 0.5 2.9462191832863027e-06
1 2 218 3 113 1.0 98.72830200195312 9.999999747378752e-05 0.5 2.9462191832863027e-06
1 2 219 3 114 1.0 98.72820281982422 9.999999747378752e-05 0.5 2.9462191832863027e-06
1 2 220 3 115 1.0 98.72810363769531 9.999999747378752e-05 0.5 2.9462191832863027e-06
1 2 221 3 116 1.0 98.72799682617188 9.999999747378752e-05 0.5 2.9462191832863027e-06
1 2 222 3 117 1.0 98.72789764404297 9.999999747378752e-05 0.5 2.9462191832863027e-06
1 2 223 3 118 1.0 98.72779846191406 9.999999747378752e-05 0.5 2.9462191832863027e-06
1 2 224 3 119 1.0 98.72769927978516 9.999999747378752e-05 0.5 2.9462191832863027e-06
1 2 225 3 120 1.0 98.72760009765625 9.999999747378752e-05 0.5 2.9462191832863027e-06
1 2 226 3 121 1.0 98.72750091552734 9.999999747378752e-05 0.5 2.9462191832863027e-06
1 2 227 3 122 1.0 98.72740173339844 9.999999747378752e-05 0.5 2.9462191832863027e-06
1 2 228 3 123 1.0 98.72730255126953 9.999999747378752e-05 0.5 2.9462191832863027e-06
1 2 229 3 124 1.0 98.72720336914062 9.999999747378752e-05 0.5 2.9462191832863027e-06
1 2 230 3 125 1.0 98.72709655761719 9.999999747378752e-05 0.5 2.9462191832863027e-06
1 2 231 3 126 1.0 98.72699737548828 9.999999747378752e-05 0.5 2.9462191832863027e-06
1 2 232 3 127 1.0 98.72689819335938 9.999999747378752e-05 0.5 2.9462191832863027e-06
1 2 233 3 128 1.0 98.72679901123047 9.999999747378752e-05 0.5 2.9462191832863027e-06
1 2 234 3 129 1.0 98.72669982910156 9.999999747378752e-05 0.5 2.9462191832863027e-06
1 2 235 3 130 1.0 98.72660064697266 9.999999747378752e-05 0.5 2.9462191832863027e-06
1 2 236 3 131 1.0 98.72650146484375 9.999999747378752e-05 0.5 2.9462191832863027e-06
1 2 237 3 132 1.0 98.72640228271484 9.999999747378752e-05 0.5 2.9462191832863027e-06
1 2 238 3 133 1.0 98.72630310058594 9.999999747378752e-05 0.5 2.9462191832863027e-06
1 2 239 3 134 1.0 98.7261962890625 9.999999747378752e-05 0.5 2.9462191832863027e-06
1 2 240 3 135 1.0 98.7260971069336 9.999999747378752e-05 0.5 2.9462191832863027e-06
1 2 241 3 136 1.0 98.72599792480469 9.999999747378752e-05 0.5 2.9462191832863027e-06
1 2 242 3 137 1.0 98.72589874267578 9.999999747378752e-05 0.5 2.9462191832863027e-06
1 2 243 3 138 1.0 98.72579956054688 9.999999747378752e-05 0.5 2.9462191832863027e-06
1 2 244 3 139 1.0 98.72570037841797 9.999999747378752e-05 0.5 2.9462191832863027e-06
1 2 245 3 140 1.0 98.72560119628906 9.999999747378752e-05 0.5 2.9462191832863027e-06
1 2 246 3 141 1.0 98.72550201416016 9.999999747378752e-05 0.5 2.9462191832863027e-06
1 2 247 3 142 1.0 98.72540283203125 9.999999747378752e-05 0.5 2.9462191832863027e-06
1 2 248 3 143 1.0 98.72530364990234 9.999999747378752e-05 0.5 2.9462191832863027e-06
1 2 249 3 144 1.0 98.7251968383789 9.999999747378752e-05 0.5 2.9462191832863027e-06
1 2 250 3 145 1.0 98.72509765625 9.999999747378752e-05 0.5 2.9462191832863027e-06
1 2 251 3 146 1.0 98.7249984741211 9.999999747378752e-05 0.5 2.9462191832863027e-06
1 2 252 3 147 1.0 98.72489929199219 9.999999747378752e-05 0.5 2.9462191832863027e-06
1 2 253 3 148 1.0 98.72480010986328 9.999999747378752e-05 0.5 2.9462191832863027e-06
1 2 254 3 149 1.0 98.72470092773438 9.999999747378752e-05 0.5 2.9462191832863027e-06
1 2 255 3 150 1.0 98.72460174560547 9.999999747378752e-05 0.5 2.9462191832863027e-06
1 2 256 3 151 1.0 98.72450256347656 9.999999747378752e-05 0.5 2.9462191832863027e-06
1 2 257 3 152 1.0 98.72440338134766 9.999999747378752e-05 0.5 2.9462191832863027e-06
1 2 258 3 153 1.0 98.72429656982422 9.999999747378752e-05 0.5 2.9462191832863027e-06
1 2 259 3 154 1.0 98.72419738769531 9.999999747378752e-05 0.5 2.9462191832863027e-06
1 2 260 3 155 1.0 98.7240982055664 9.999999747378752e-05 0.5 2.9462191832863027e-06
1 2 261 3 156 1.0 98.7239990234375 9.999999747378752e-05 0.5 2.9462191832863027e-06
1 2 262 3 157 1.0 98.7238998413086 9.999999747378752e-05 0.5 2.9462191832863027e-06
1 2 263 3 158 1.0 98.72380065917969 9.999999747378752e-05 0.5 2.9462191832863027e-06
1 2 264 3 159 1.0 98.72370147705078 9.999999747378752e-05 0.5 2.9462191832863027e-06
1 2 265 3 160 1.0 98.72360229492188 9.999999747378752e-05 0.5 2.9462191832863027e-06
1 2 266 3 161 1.0 98.72350311279297 9.999999747378752e-05 0.5 2.9462191832863027e-06
1 2 267 3 162 1.0 98.72339630126953 9.999999747378752e-05 0.5 2.9462191832863027e-06
1 2 268 3 163 1.0 98.72329711914062 9.999999747378752e-05 0.5 2.9462191832863027e-06
1 2 269 3 164 1.0 98.72319793701172 9.999999747378752e-05 0.5 2.9462191832863027e-06
1 2 270 3 165 1.0 98.72309875488281 9.999999747378752e-05 0.5 2.9462191832863027e-06
1 2 271 3 166 1.0 98.7229995727539 9.999999747378752e-05 0.5 2.9462191832863027e-06
1 2 272 3 167 1.0 98.722900390625 9.999999747378752e-05 0.5 2.9462191832863027e-06
1 2 273 3 168 1.0 98.7228012084961 9.999999747378752e-05 0.5 2.9462191832863027e-06
1 2 274 3 169 1.0 98.72270202636719 9.999999747378752e-05 0.5 2.9462191832863027e-06
1 2 275 3 170 1.0 98.72260284423828 9.999999747378752e-05 0.5 2.9462191832863027e-06
1 2 276 3 171 1.0 98.72250366210938 9.999999747378752e-05 0.5 2.9462191832863027e-06
1 2 277 3 172 1.0 98.72239685058594 9.999999747378752e-05 0.5 2.9462191832863027e-06
1 2 278 3 173 1.0 98.72229766845703 9.999999747378752e-05 0.5 2.9462191832863027e-06
1 2 279 3 174 1.0 98.72219848632812 9.999999747378752e-05 0.5 2.9462191832863027e-06
1 2 280 3 175 1.0 98.72209930419922 9.999999747378752e-05 0.5 2.9462191832863027e-06
1 2 281 3 176 1.0 98.72200012207031 9.999999747378752e-05 0.5 2.9462191832863027e-06
1 2 282 4 1 1.0 98.7219009399414 9.999999747378752e-05 0.5 1.3750799325862317e-06
1 2 283 4 2 1.0 98.7218017578125 9.999999747378752e-05 0.5 1.3750799325862317e-06
1 2 284 4 3 1.0 98.7217025756836 9.999999747378752e-05 0.5 1.3750799325862317e-06
1 2 285 4 4 1.0 98.72160339355469 9.999999747378752e-05 0.5 1.3750799325862317e-06
1 2 286 4 5 1.0 98.72149658203125 9.999999747378752e-05 0.5 1.3750799325862317e-06
1 2 287 4 6 1.0 98.72139739990234 9.999999747378752e-05 0.5 1.3750799325862317e-06
1 2 288 4 7 1.0 98.72129821777344 9.999999747378752e-05 0.5 1.3750799325862317e-06
1 2 289 4 8 1.0 98.72119903564453 9.999999747378752e-05 0.5 1.3750799325862317e-06
1 2 290 4 9 1.0 98.72109985351562 9.999999747378752e-05 0.5 1.3750799325862317e-06
1 2 291 4 10 1.0 98.72100067138672 9.999999747378752e-05 0.5 1.3750799325862317e-06
1 2 292 4 11 1.0 98.72090148925781 9.999999747378752e-05 0.5 1.3750799325862317e-06
1 2 293 4 12 1.0 98.7208023071289 9.999999747378752e-05 0.5 1.3750799325862317e-06
1 2 294 4 13 1.0 98.720703125 9.999999747378752e-05 0.5 1.3750799325862317e-06
1 2 295 4 14 1.0 98.72059631347656 9.999999747378752e-05 0.5 1.3750799325862317e-06
1 2 296 4 15 1.0 98.72049713134766 9.999999747378752e-05 0.5 1.3750799325862317e-06
1 2 297 4 16 1.0 98.72039794921875 9.999999747378752e-05 0.5 1.3750799325862317e-06
1 2 298 4 17 1.0 98.72029876708984 9.999999747378752e-05 0.5 1.3750799325862317e-06
1 2 299 4 18 1.0 98.72019958496094 9.999999747378752e-05 0.5 1.3750799325862317e-06
1 2 300 4 19 1.0 98.72010040283203 9.999999747378752e-05 0.5 1.3750799325862317e-06
1 2 301 4 20 1.0 98.72000122070312 9.999999747378752e-05 0.5 1.3750799325862317e-06
1 2 302 4 21 1.0 98.71990203857422 9.999999747378752e-05 0.5 1.3750799325862317e-06
1 2 303 4 22 1.0 98.71980285644531 9.999999747378752e-05 0.5 1.3750799325862317e-06
1 2 304 4 23 1.0 98.7197036743164 9.999999747378752e-05 0.5 1.3750799325862317e-06
1 2 305 4 24 1.0 98.71959686279297 9.999999747378752e-05 0.5 1.3750799325862317e-06
1 2 306 4 25 1.0 98.71949768066406 9.999999747378752e-05 0.5 1.3750799325862317e-06
1 2 307 4 26 1.0 98.71939849853516 9.999999747378752e-05 0.5 1.3750799325862317e-06
1 2 308 4 27 1.0 98.71929931640625 9.999999747378752e-05 0.5 1.3750799325862317e-06
1 2 309 4 28 1.0 98.71920013427734 9.999999747378752e-05 0.5 1.3750799325862317e-06
1 2 310 4 29 1.0 98.71910095214844 9.999999747378752e-05 0.5 1.3750799325862317e-06
1 2 311 4 30 1.0 98.71900177001953 9.999999747378752e-05 0.5 1.3750799325862317e-06
1 2 312 4 31 1.0 98.71890258789062 9.999999747378752e-05 0.5 1.3750799325862317e-06
1 2 313 4 32 1.0 98.71880340576172 9.999999747378752e-05 0.5 1.3750799325862317e-06
1 2 314 4 33 1.0 98.71869659423828 9.999999747378752e-05 0.5 1.3750799325862317e-06
1 2 315 4 34 1.0 98.71859741210938 9.999999747378752e-05 0.5 1.3750799325862317e-06
1 2 316 4 35 1.0 98.71849822998047 9.999999747378752e-05 0.5 1.3750799325862317e-06
1 2 317 4 36 1.0 98.71839904785156 9.999999747378752e-05 0.5 1.3750799325862317e-06
1 2 318 4 37 1.0 98.71829986572266 9.999999747378752e-05 0.5 1.3750799325862317e-06
1 2 319 4 38 1.0 98.71820068359375 9.999999747378752e-05 0.5 1.3750799325862317e-06
1 2 320 4 39 1.0 98.71810150146484 9.999999747378752e-05 0.5 1.3750799325862317e-06
1 2 321 4 40 1.0 98.71800231933594 9.999999747378752e-05 0.5 1.3750799325862317e-06
1 2 322 4 41 1.0 98.71790313720703 9.999999747378752e-05 0.5 1.3750799325862317e-06
1 2 323 4 42 1.0 98.7177963256836 9.999999747378752e-05 0.5 1.3750799325862317e-06
1 2 324 4 43 1.0 98.71769714355469 9.999999747378752e-05 0.5 1.3750799325862317e-06
1 2 325 4 44 1.0 98.71759796142578 9.999999747378752e-05 0.5 1.3750799325862317e-06
1 2 326 4 45 1.0 98.71749877929688 9.999999747378752e-05 0.5 1.3750799325862317e-06
1 2 327 4 46 1.0 98.71739959716797 9.999999747378752e-05 0.5 1.3750799325862317e-06
1 2 328 4 47 1.0 98.71730041503906 9.999999747378752e-05 0.5 1.3750799325862317e-06
1 2 329 4 48 1.0 98.71720123291016 9.999999747378752e-05 0.5 1.3750799325862317e-06
1 2 330 4 49 1.0 98.71710205078125 9.999999747378752e-05 0.5 1.3750799325862317e-06
1 2 331 4 50 1.0 98.71700286865234 9.999999747378752e-05 0.5 1.3750799325862317e-06
1 2 332 4 51 1.0 98.71690368652344 9.999999747378752e-05 0.5 1.3750799325862317e-06
1 2 333 4 52 1.0 98.716796875 9.999999747378752e-05 0.5 1.3750799325862317e-06
1 2 334 4 53 1.0 98.7166976928711 9.999999747378752e-05 0.5 1.3750799325862317e-06
1 2 335 4 54 1.0 98.71659851074219 9.999999747378752e-05 0.5 1.3750799325862317e-06
1 2 336 4 55 1.0 98.71649932861328 9.999999747378752e-05 0.5 1.3750799325862317e-06
1 2 337 4 56 1.0 98.71640014648438 9.999999747378752e-05 0.5 1.3750799325862317e-06
1 2 338 4 57 1.0 98.71630096435547 9.999999747378752e-05 0.5 1.3750799325862317e-06
1 2 339 4 58 1.0 98.71620178222656 9.999999747378752e-05 0.5 1.3750799325862317e-06
1 2 340 4 59 1.0 98.71610260009766 9.999999747378752e-05 0.5 1.3750799325862317e-06
1 2 341 4 60 1.0 98.71600341796875 9.999999747378752e-05 0.5 1.3750799325862317e-06
1 2 342 4 61 1.0 98.71589660644531 9.999999747378752e-05 0.5 1.3750799325862317e-06
1 2 343 4 62 1.0 98.7157974243164 9.999999747378752e-05 0.5 1.3750799325862317e-06
1 2 344 4 63 1.0 98.7156982421875 9.999999747378752e-05 0.5 1.3750799325862317e-06
1 2 345 4 64 1.0 98.7155990600586 9.999999747378752e-05 0.5 1.3750799325862317e-06
1 2 346 4 65 1.0 98.71549987792969 9.999999747378752e-05 0.5 1.3750799325862317e-06
1 2 347 4 66 1.0 98.71540069580078 9.999999747378752e-05 0.5 1.3750799325862317e-06
1 2 348 4 67 1.0 98.71530151367188 9.999999747378752e-05 0.5 1.3750799325862317e-06
1 2 349 4 68 1.0 98.71520233154297 9.999999747378752e-05 0.5 1.3750799325862317e-06
1 2 350 4 69 1.0 98.71510314941406 9.999999747378752e-05 0.5 1.3750799325862317e-06
1 2 351 4 70 1.0 98.71499633789062 9.999999747378752e-05 0.5 1.3750799325862317e-06
1 2 352 4 71 1.0 98.71489715576172 9.999999747378752e-05 0.5 1.3750799325862317e-06
1 2 353 4 72 1.0 98.71479797363281 9.999999747378752e-05 0.5 1.3750799325862317e-06
1 2 354 4 73 1.0 98.7146987915039 9.999999747378752e-05 0.5 1.3750799325862317e-06
1 2 355 4 74 1.0 98.714599609375 9.999999747378752e-05 0.5 1.3750799325862317e-06
1 2 356 4 75 1.0 98.7145004272461 9.999999747378752e-05 0.5 1.3750799325862317e-06
1 2 357 4 76 1.0 98.71440124511719 9.999999747378752e-05 0.5 1.3750799325862317e-06
1 2 358 4 77 1.0 98.71430206298828 9.999999747378752e-05 0.5 1.3750799325862317e-06
1 2 359 4 78 1.0 98.71420288085938 9.999999747378752e-05 0.5 1.3750799325862317e-06